<?xml version="1.0" encoding="UTF-8"?>
<additional xmlns:xsi="http://www.w3.org/2001/XMLSchema-instance" xsi:noNamespaceSchemaLocation="http://sumo.dlr.de/xsd/additional_file.xsd">
    <tlLogic id="center" type="static" programID="0" offset="0">
        <phase duration="31" state="GGggrrrGGgrr"/> <!-- North-South green -->
        <phase duration="4" state="yyggrrryygry"/> <!-- North-South yellow -->
        <phase duration="31" state="rrrGGggrrrGG"/> <!-- East-West green -->
        <phase duration="4" state="rrryyggrrryy"/> <!-- East-West yellow -->
    </tlLogic>
</additional>
