<?xml version="1.0" encoding="UTF-8"?>
<additional xmlns:xsi="http://www.w3.org/2001/XMLSchema-instance" xsi:noNamespaceSchemaLocation="http://sumo.dlr.de/xsd/additional_file.xsd">
    <tlLogic id="center" type="static" programID="adaptive" offset="0">
        <phase duration="45" state="GGggrrrrGGggrrrr"/> <!-- North-South green -->
        <phase duration="4" state="yyggrrrryyggRRRR"/> <!-- North-South yellow -->
        <phase duration="45" state="rrrrGGggrrrrGGgg"/> <!-- East-West green -->
        <phase duration="4" state="rrrryyggrrrryygg"/> <!-- East-West yellow -->
    </tlLogic>
</additional>
