<?xml version="1.0" encoding="UTF-8"?>
<routes xmlns:xsi="http://www.w3.org/2001/XMLSchema-instance" xsi:noNamespaceSchemaLocation="http://sumo.dlr.de/xsd/routes_file.xsd">
    <!-- Define vehicle types -->
    <vType id="car" accel="2.6" decel="4.5" sigma="0.5" length="5" minGap="2.5" maxSpeed="55.55" color="1,1,0"/>
    
    <!-- Define routes -->
    <route id="north_south" edges="NtoCenter CentertoS"/>
    <route id="south_north" edges="StoCenter CentertoN"/>
    <route id="east_west" edges="EtoCenter CentertoW"/>
    <route id="west_east" edges="WtoCenter CentertoE"/>
    <flow id="flow_north" route="north_south" begin="0" end="3600" vehsPerHour="400" type="car"/>
    <flow id="flow_south" route="south_north" begin="0" end="3600" vehsPerHour="400" type="car"/>
    <flow id="flow_east" route="east_west" begin="0" end="3600" vehsPerHour="400" type="car"/>
    <flow id="flow_west" route="west_east" begin="0" end="3600" vehsPerHour="400" type="car"/>
</routes>